/*--------------------------------*- C++ -*----------------------------------*\
  =========                 |
  \\      /  F ield         | OpenFOAM: The Open Source CFD Toolbox
   \\    /   O peration     | Website:  https://openfoam.org
    \\  /    A nd           | Version:  6
     \\/     M anipulation  |
\*---------------------------------------------------------------------------*/
FoamFile
{
    version     2.0;
    format      ascii;
    class       dictionary;
    object      controlDict;
}
// * * * * * * * * * * * * * * * * * * * * * * * * * * * * * * * * * * * * * //

application             myInterPhaseChangeFoam;

startFrom               latestTime;

startTime               0;

stopAt                  endTime;

endTime                 0.1;

deltaT                  0.001;

writeControl            adjustableRunTime;

writeInterval           10;

purgeWrite              0;

writeFormat             ascii;

writePrecision          6;  // specifies the write time precision i.e if write precision is 3 then we can say time t = 0.342,
//similarly here we can write upto 6 digits i.e time can be like "0.345678"

writeCompression        off;

timeFormat              general;

runTimeModifiable       yes;

adjustTimeStep          on;

maxCo                   5;


// ************************************************************************* //
